3
# CELL(abcABC):   35.23300    35.23300    35.23300    90.00000    90.00000    90.00000  cell{atomic_unit}  Traj: positions{atomic_unit} Step:           0  Bead:       0 
       O  0.00000e+00 -3.77945e-02  0.00000e+00
       H  1.41729e+00  9.44863e-01  0.00000e+00
       H -1.41729e+00  9.44863e-01  0.00000e+00
3
# CELL(abcABC):   35.23300    35.23300    35.23300    90.00000    90.00000    90.00000  cell{atomic_unit}  Traj: positions{atomic_unit} Step:           1  Bead:       0 
       O -1.57816e-19 -1.06805e-01 -1.69206e-20
       H  1.45509e+00  9.79368e-01 -3.65045e-21
       H -1.45509e+00  9.79368e-01  5.80562e-21
3
# CELL(abcABC):   35.23300    35.23300    35.23300    90.00000    90.00000    90.00000  cell{atomic_unit}  Traj: positions{atomic_unit} Step:           2  Bead:       0 
       O -1.03739e-18 -8.31511e-02 -1.39127e-20
       H  1.44151e+00  9.67541e-01 -1.46670e-21
       H -1.44151e+00  9.67541e-01  9.44347e-21
3
# CELL(abcABC):   35.23300    35.23300    35.23300    90.00000    90.00000    90.00000  cell{atomic_unit}  Traj: positions{atomic_unit} Step:           3  Bead:       0 
       O -2.40557e-18 -8.15904e-02 -1.06187e-20
       H  1.43934e+00  9.66761e-01  1.89436e-21
       H -1.43934e+00  9.66761e-01  1.30851e-20
3
# CELL(abcABC):   35.23300    35.23300    35.23300    90.00000    90.00000    90.00000  cell{atomic_unit}  Traj: positions{atomic_unit} Step:           4  Bead:       0 
       O -6.29559e-18 -8.21007e-02 -2.90682e-20
       H  1.43826e+00  9.67016e-01  8.08634e-21
       H -1.43826e+00  9.67016e-01  9.47319e-21
3
# CELL(abcABC):   35.23300    35.23300    35.23300    90.00000    90.00000    90.00000  cell{atomic_unit}  Traj: positions{atomic_unit} Step:           5  Bead:       0 
       O -1.72757e-17 -8.49547e-02 -3.96094e-21
       H  1.43451e+00  9.68443e-01  3.05568e-20
       H -1.43451e+00  9.68443e-01  9.96821e-21
3
# CELL(abcABC):   35.23300    35.23300    35.23300    90.00000    90.00000    90.00000  cell{atomic_unit}  Traj: positions{atomic_unit} Step:           6  Bead:       0 
       O -1.97339e-17 -8.53681e-02 -4.40611e-21
       H  1.43434e+00  9.68650e-01  3.26935e-20
       H -1.43434e+00  9.68650e-01  8.86634e-21
3
# CELL(abcABC):   35.23300    35.23300    35.23300    90.00000    90.00000    90.00000  cell{atomic_unit}  Traj: positions{atomic_unit} Step:           7  Bead:       0 
       O -1.97781e-17 -8.54177e-02  1.68113e-21
       H  1.43437e+00  9.68675e-01  3.70179e-20
       H -1.43437e+00  9.68675e-01  1.34155e-20
3
# CELL(abcABC):   35.23300    35.23300    35.23300    90.00000    90.00000    90.00000  cell{atomic_unit}  Traj: positions{atomic_unit} Step:           8  Bead:       0 
       O -1.97584e-17 -8.54173e-02 -4.20998e-21
       H  1.43437e+00  9.68674e-01  3.68124e-20
       H -1.43437e+00  9.68674e-01  1.06424e-20
3
# CELL(abcABC):   35.23300    35.23300    35.23300    90.00000    90.00000    90.00000  cell{atomic_unit}  Traj: positions{atomic_unit} Step:           9  Bead:       0 
       O -1.97809e-17 -8.54159e-02  5.84939e-21
       H  1.43437e+00  9.68674e-01  4.19024e-20
       H -1.43437e+00  9.68674e-01  1.95042e-20
3
# CELL(abcABC):   35.23300    35.23300    35.23300    90.00000    90.00000    90.00000  cell{atomic_unit}  Traj: positions{atomic_unit} Step:          10  Bead:       0 
       O -1.97798e-17 -8.54158e-02  3.39068e-20
       H  1.43437e+00  9.68674e-01  4.55021e-20
       H -1.43437e+00  9.68674e-01  2.55218e-20
