3
# CELL(abcABC):   35.23300    35.23300    35.23300    90.00000    90.00000    90.00000  cell{atomic_unit}  Traj: positions{atomic_unit} Step:           0  Bead:       0 
       O  0.00000e+00 -3.77945e-02  0.00000e+00
       H  1.41729e+00  9.44863e-01  0.00000e+00
       H -1.41729e+00  9.44863e-01  0.00000e+00
3
# CELL(abcABC):   35.23300    35.23300    35.23300    90.00000    90.00000    90.00000  cell{atomic_unit}  Traj: positions{atomic_unit} Step:           1  Bead:       0 
       O -1.03262e-19 -8.29492e-02 -1.10715e-20
       H  1.44202e+00  9.67440e-01 -2.38856e-21
       H -1.44202e+00  9.67440e-01  3.79873e-21
3
# CELL(abcABC):   35.23300    35.23300    35.23300    90.00000    90.00000    90.00000  cell{atomic_unit}  Traj: positions{atomic_unit} Step:           2  Bead:       0 
       O -3.04299e-18 -8.15814e-02 -5.70022e-19
       H  1.44001e+00  9.66757e-01  9.16720e-21
       H -1.44001e+00  9.66757e-01  9.03687e-21
3
# CELL(abcABC):   35.23300    35.23300    35.23300    90.00000    90.00000    90.00000  cell{atomic_unit}  Traj: positions{atomic_unit} Step:           3  Bead:       0 
       O -5.14078e-18 -8.19036e-02 -1.11584e-18
       H  1.43844e+00  9.66918e-01  4.99953e-20
       H -1.43844e+00  9.66918e-01  1.41359e-20
3
# CELL(abcABC):   35.23300    35.23300    35.23300    90.00000    90.00000    90.00000  cell{atomic_unit}  Traj: positions{atomic_unit} Step:           4  Bead:       0 
       O -7.59311e-18 -8.36092e-02 -1.00891e-18
       H  1.43558e+00  9.67770e-01  1.30313e-19
       H -1.43558e+00  9.67770e-01  2.45479e-20
3
# CELL(abcABC):   35.23300    35.23300    35.23300    90.00000    90.00000    90.00000  cell{atomic_unit}  Traj: positions{atomic_unit} Step:           5  Bead:       0 
       O -1.11976e-17 -8.49866e-02 -8.20240e-19
       H  1.43436e+00  9.68459e-01  1.79971e-19
       H -1.43436e+00  9.68459e-01  2.73930e-20
3
# CELL(abcABC):   35.23300    35.23300    35.23300    90.00000    90.00000    90.00000  cell{atomic_unit}  Traj: positions{atomic_unit} Step:           6  Bead:       0 
       O -1.54525e-17 -8.54124e-02 -7.80286e-19
       H  1.43429e+00  9.68672e-01  1.89267e-19
       H -1.43429e+00  9.68672e-01  2.33073e-20
3
# CELL(abcABC):   35.23300    35.23300    35.23300    90.00000    90.00000    90.00000  cell{atomic_unit}  Traj: positions{atomic_unit} Step:           7  Bead:       0 
       O -1.70517e-17 -8.54221e-02 -7.60391e-19
       H  1.43436e+00  9.68677e-01  1.91216e-19
       H -1.43436e+00  9.68677e-01  2.93359e-20
3
# CELL(abcABC):   35.23300    35.23300    35.23300    90.00000    90.00000    90.00000  cell{atomic_unit}  Traj: positions{atomic_unit} Step:           8  Bead:       0 
       O -1.70538e-17 -8.54162e-02 -7.57014e-19
       H  1.43437e+00  9.68674e-01  1.97668e-19
       H -1.43437e+00  9.68674e-01  3.51671e-20
3
# CELL(abcABC):   35.23300    35.23300    35.23300    90.00000    90.00000    90.00000  cell{atomic_unit}  Traj: positions{atomic_unit} Step:           9  Bead:       0 
       O -2.04347e-17 -8.54158e-02 -7.61122e-19
       H  1.43437e+00  9.68674e-01  1.98753e-19
       H -1.43437e+00  9.68674e-01  3.06873e-20
