3
# CELL(abcABC):   35.23300    35.23300    35.23300    90.00000    90.00000    90.00000  cell{atomic_unit}  Traj: positions{atomic_unit} Step:           0  Bead:       0 
       O  0.00000e+00 -3.77945e-02  0.00000e+00
       H  1.41729e+00  9.44863e-01  0.00000e+00
       H -1.41729e+00  9.44863e-01  0.00000e+00
3
# CELL(abcABC):   35.23300    35.23300    35.23300    90.00000    90.00000    90.00000  cell{atomic_unit}  Traj: positions{atomic_unit} Step:           1  Bead:       0 
       O -9.81737e-20 -8.07242e-02 -1.05259e-20
       H  1.44080e+00  9.66328e-01 -2.27086e-21
       H -1.44080e+00  9.66328e-01  3.61155e-21
3
# CELL(abcABC):   35.23300    35.23300    35.23300    90.00000    90.00000    90.00000  cell{atomic_unit}  Traj: positions{atomic_unit} Step:           2  Bead:       0 
       O -9.79490e-18 -8.56034e-02  5.37729e-20
       H  1.43447e+00  9.68767e-01  8.70714e-21
       H -1.43447e+00  9.68767e-01  1.36209e-20
3
# CELL(abcABC):   35.23300    35.23300    35.23300    90.00000    90.00000    90.00000  cell{atomic_unit}  Traj: positions{atomic_unit} Step:           3  Bead:       0 
       O  8.82187e-17 -8.54392e-02  4.76211e-20
       H  1.43434e+00  9.68685e-01  1.24560e-20
       H -1.43434e+00  9.68685e-01  1.05796e-20
